%nproc=2
%mem=12GB
#n wb97xd/6-31G(d,p)

 Title

0 1
C         -1.35178        3.40236       -0.00000
C          0.02616        3.18748        0.00000
C          0.52424        1.88201        0.00000
C         -0.36454        0.79523        0.00000
C         -1.72406        0.99238       -0.00000
C         -2.22943        2.31408       -0.00000
C         -2.54502       -0.14382        0.00000
C         -2.12149       -1.45668        0.00000
C         -0.66558       -1.65444        0.00000
C          0.09742       -0.49471        0.00000
C         -3.12826       -2.51234        0.00000
C         -2.47369       -3.89332        0.00000
C         -0.99491       -4.00883       -0.00000
C          0.00092       -2.95324       -0.00000
C         -3.13553       -5.22619        0.00000
C         -2.44541       -6.42563        0.00000



