%NProcShared=30
%Mem=20GB
#n B3LYP/6-31G(d) Opt freq

 Title

0 1
C         -2.61048        2.17879       -0.02002
C         -1.29060        1.43055        0.02196
C         -2.59772        0.66111       -0.03356
H         -3.06500        2.45197       -0.99632
H         -3.13614        2.43425        0.92484
H         -0.85251        1.71415        1.00278
H         -0.78135        1.73189       -0.91838
H         -2.54573        0.11318       -0.99867
H         -2.61690        0.09547        0.92250

